@<TRIPOS>MOLECULE
4fv7.A
65   69    1
SMALL
USER_CHARGES


@<TRIPOS>ATOM
      1 N3         16.1448  -12.1098   33.4947 N.1       1 E94        -0.4353 
      2 C18        16.1641  -13.2135   33.1335 C.1       1 E94         0.2820 
      3 C17        16.1439  -14.5090   32.5331 C.2       1 E94        -0.0073 
      4 C7         16.2562  -15.6893   33.3530 C.2       1 E94         0.0605 
      5 C3         16.3869  -15.6300   34.8185 C.ar      1 E94        -0.0470 
      6 C2         15.3323  -15.1365   35.6184 C.ar      1 E94        -0.1040 
      7 H2         14.4139  -14.7950   35.1654 H         1 E94         0.1427 
      8 C4         17.5642  -16.0983   35.4418 C.ar      1 E94        -0.0963 
      9 H4         18.3717  -16.5026   34.8481 H         1 E94         0.1458 
     10 C5         17.6873  -16.0693   36.8449 C.ar      1 E94        -0.1173 
     11 H5         18.5839  -16.4429   37.3188 H         1 E94         0.1478 
     12 C6         16.6369  -15.5625   37.6338 C.ar      1 E94        -0.1032 
     13 H6         16.7289  -15.5409   38.7103 H         1 E94         0.1530 
     14 C1         15.4615  -15.0919   37.0195 C.ar      1 E94         0.0693 
     15 CL         14.1829  -14.4434   37.9776 Cl        1 E94        -0.1388 
     16 C9         16.0358  -14.7812   31.1807 C.2       1 E94         0.1412 
     17 N1         15.8892  -13.9515   30.0544 N.pl3     1 E94        -0.4658 
     18 H1         15.7936  -14.4313   29.1632 H         1 E94         0.2795 
     19 C10        15.2762  -12.6333   30.1537 C.3       1 E94        -0.0309 
     20 H101       14.6002  -12.6131   31.0097 H         1 E94         0.0939 
     21 H102       14.6390  -12.4839   29.2799 H         1 E94         0.0939 
     22 C11        16.3298  -11.5040   30.2285 C.3       1 E94         0.0446 
     23 H111       16.6327  -11.1997   29.2248 H         1 E94         0.1285 
     24 H112       17.2318  -11.8892   30.7079 H         1 E94         0.1285 
     25 N2         15.8594  -10.3325   31.0130 N.4       1 E94        -0.4345 
     26 H2         15.5815  -10.7094   31.9139 H         1 E94         0.3106 
     27 C16        14.6756   -9.6442   30.4276 C.3       1 E94         0.0371 
     28 H161       13.8687  -10.3538   30.2407 H         1 E94         0.1242 
     29 H162       14.9415   -9.2128   29.4606 H         1 E94         0.1242 
     30 C15        14.1534   -8.5447   31.3697 C.3       1 E94        -0.1609 
     31 H151       13.7599   -8.9916   32.2847 H         1 E94         0.1132 
     32 H152       13.3146   -8.0225   30.9056 H         1 E94         0.1132 
     33 C14        15.2603   -7.5409   31.7201 C.3       1 E94        -0.1440 
     34 H141       14.8924   -6.8104   32.4433 H         1 E94         0.1053 
     35 H142       15.5449   -6.9735   30.8320 H         1 E94         0.1053 
     36 C13        16.4819   -8.2781   32.2860 C.3       1 E94        -0.1609 
     37 H131       16.2348   -8.7121   33.2571 H         1 E94         0.1132 
     38 H132       17.2901   -7.5683   32.4719 H         1 E94         0.1132 
     39 C12        16.9596   -9.3803   31.3242 C.3       1 E94         0.0371 
     40 H121       17.3384   -8.9357   30.4018 H         1 E94         0.1242 
     41 H122       17.7952   -9.9117   31.7839 H         1 E94         0.1242 
     42 S          16.1281  -16.4933   30.8866 S.3       1 E94        -0.0159 
     43 C8         16.2416  -16.8378   32.5904 C.2       1 E94        -0.0275 
     44 C19        16.3072  -18.2346   33.0135 C.ar      1 E94         0.1515 
     45 C22        17.0238  -19.2194   32.3194 C.ar      1 E94        -0.2566 
     46 H22        17.5618  -19.0183   31.4060 H         1 E94         0.1601 
     47 C21        17.0243  -20.5000   32.8900 C.ar      1 E94         0.0663 
     48 H21        17.5564  -21.3175   32.4261 H         1 E94         0.1756 
     49 N5         16.3855  -20.7632   34.0416 N.ar      1 E94        -0.2734 
     50 C20        15.7343  -19.7625   34.6004 C.ar      1 E94         0.3576 
     51 N4         15.6539  -18.5230   34.1465 N.ar      1 E94        -0.2918 
     52 N6         15.1206  -20.0550   35.7890 N.pl3     1 E94        -0.6052 
     53 H6         15.3859  -20.9715   36.1100 H         1 E94         0.3321 
     54 C23        14.4356  -19.2739   36.7275 C.ar      1 E94         0.2516 
     55 C28        13.4200  -18.3801   36.3245 C.ar      1 E94        -0.2069 
     56 H28        13.1718  -18.2812   35.2778 H         1 E94         0.1408 
     57 C27        12.7253  -17.6147   37.2803 C.ar      1 E94        -0.0605 
     58 H27        11.9513  -16.9317   36.9643 H         1 E94         0.1342 
     59 C26        13.0430  -17.7328   38.6466 C.ar      1 E94        -0.2443 
     60 H26        12.5080  -17.1323   39.3679 H         1 E94         0.1332 
     61 C25        14.0556  -18.6221   39.0563 C.ar      1 E94         0.2435 
     62 O          14.3766  -18.7397   40.3770 O.3       1 E94        -0.5907 
     63 H          13.8405  -18.2137   40.9507 H         1 E94         0.4493 
     64 C24        14.7434  -19.3956   38.0998 C.ar      1 E94        -0.1940 
     65 H24        15.5163  -20.0741   38.4296 H         1 E94         0.1609 
@<TRIPOS>BOND
     1    1    2 3    
     2    2    3 1    
     3    3    4 1    
     4    3   16 2    
     5    4    5 1    
     6    4   43 2    
     7    5    6 ar   
     8    5    8 ar   
     9    6    7 1    
    10    6   14 ar   
    11    8    9 1    
    12    8   10 ar   
    13   10   11 1    
    14   10   12 ar   
    15   12   13 1    
    16   12   14 ar   
    17   14   15 1    
    18   16   17 1    
    19   16   42 1    
    20   17   18 1    
    21   17   19 1    
    22   19   20 1    
    23   19   21 1    
    24   19   22 1    
    25   22   23 1    
    26   22   24 1    
    27   22   25 1    
    28   25   26 1    
    29   25   27 1    
    30   25   39 1    
    31   27   28 1    
    32   27   29 1    
    33   27   30 1    
    34   30   31 1    
    35   30   32 1    
    36   30   33 1    
    37   33   34 1    
    38   33   35 1    
    39   33   36 1    
    40   36   37 1    
    41   36   38 1    
    42   36   39 1    
    43   39   40 1    
    44   39   41 1    
    45   42   43 1    
    46   43   44 1    
    47   44   45 ar   
    48   44   51 ar   
    49   45   46 1    
    50   45   47 ar   
    51   47   48 1    
    52   47   49 ar   
    53   49   50 ar   
    54   50   51 ar   
    55   50   52 1    
    56   52   53 1    
    57   52   54 1    
    58   54   55 ar   
    59   54   64 ar   
    60   55   56 1    
    61   55   57 ar   
    62   57   58 1    
    63   57   59 ar   
    64   59   60 1    
    65   59   61 ar   
    66   61   62 1    
    67   61   64 ar   
    68   62   63 1    
    69   64   65 1    
@<TRIPOS>SUBSTRUCTURE
     1 E94         1 GROUP             0       ****    0 ROOT    
